**************************************************
* OpenRAM generated memory.
* Words: 32
* Data bits: 32
* Banks: 1
* Column mux: 1:1
* Trimmed: False
* LVS: False
**************************************************

* spice ptx X{0} {1} sky130_fd_pr__nfet_01v8 m=1 w=3.0 l=0.15 pd=6.30 ps=6.30 as=1.12u ad=1.12u

* spice ptx X{0} {1} sky130_fd_pr__pfet_01v8 m=1 w=7.0 l=0.15 pd=14.30 ps=14.30 as=2.62u ad=2.62u

.SUBCKT sky130_sram_128bytes_1r1w_32x32_pinv_dec_0
+ A Z vdd gnd
* INPUT : A 
* OUTPUT: Z 
* POWER : vdd 
* GROUND: gnd 
* size: 8
Xpinv_pmos Z A vdd vdd sky130_fd_pr__pfet_01v8 m=1 w=7.0 l=0.15 pd=14.30 ps=14.30 as=2.62u ad=2.62u
Xpinv_nmos Z A gnd gnd sky130_fd_pr__nfet_01v8 m=1 w=3.0 l=0.15 pd=6.30 ps=6.30 as=1.12u ad=1.12u
.ENDS sky130_sram_128bytes_1r1w_32x32_pinv_dec_0
* Copyright 2020 The SkyWater PDK Authors
*
* Licensed under the Apache License, Version 2.0 (the "License");
* you may not use this file except in compliance with the License.
* You may obtain a copy of the License at
*
*     https://www.apache.org/licenses/LICENSE-2.0
*
* Unless required by applicable law or agreed to in writing, software
* distributed under the License is distributed on an "AS IS" BASIS,
* WITHOUT WARRANTIES OR CONDITIONS OF ANY KIND, either express or implied.
* See the License for the specific language governing permissions and
* limitations under the License.
*
* SPDX-License-Identifier: Apache-2.0

* NGSPICE file created from sky130_fd_bd_sram__openram_dp_nand2_dec.ext - technology: EFS8A


* Top level circuit sky130_fd_bd_sram__openram_dp_nand2_dec
.subckt sky130_fd_bd_sram__openram_dp_nand2_dec A B Z VDD GND

X1001 Z B VDD VDD sky130_fd_pr__pfet_01v8 W=1.12 L=0.15
X1002 VDD A Z VDD sky130_fd_pr__pfet_01v8 W=1.12 L=0.15
X1000 Z A a_n722_276# GND sky130_fd_pr__nfet_01v8 W=0.74 L=0.15
X1003 a_n722_276# B GND GND sky130_fd_pr__nfet_01v8 W=0.74 L=0.15
.ends


.SUBCKT sky130_sram_128bytes_1r1w_32x32_wordline_driver
+ A B Z vdd gnd
* INPUT : A 
* INPUT : B 
* OUTPUT: Z 
* POWER : vdd 
* GROUND: gnd 
* cols: 33
Xwld_nand
+ A B zb_int vdd gnd
+ sky130_fd_bd_sram__openram_dp_nand2_dec
Xwl_driver
+ zb_int Z vdd gnd
+ sky130_sram_128bytes_1r1w_32x32_pinv_dec_0
.ENDS sky130_sram_128bytes_1r1w_32x32_wordline_driver

.SUBCKT sky130_sram_128bytes_1r1w_32x32_wordline_driver_array
+ in_0 in_1 in_2 in_3 in_4 in_5 in_6 in_7 in_8 in_9 in_10 in_11 in_12
+ in_13 in_14 in_15 in_16 in_17 in_18 in_19 in_20 in_21 in_22 in_23
+ in_24 in_25 in_26 in_27 in_28 in_29 in_30 in_31 in_32 wl_0 wl_1 wl_2
+ wl_3 wl_4 wl_5 wl_6 wl_7 wl_8 wl_9 wl_10 wl_11 wl_12 wl_13 wl_14 wl_15
+ wl_16 wl_17 wl_18 wl_19 wl_20 wl_21 wl_22 wl_23 wl_24 wl_25 wl_26
+ wl_27 wl_28 wl_29 wl_30 wl_31 wl_32 en vdd gnd
* INPUT : in_0 
* INPUT : in_1 
* INPUT : in_2 
* INPUT : in_3 
* INPUT : in_4 
* INPUT : in_5 
* INPUT : in_6 
* INPUT : in_7 
* INPUT : in_8 
* INPUT : in_9 
* INPUT : in_10 
* INPUT : in_11 
* INPUT : in_12 
* INPUT : in_13 
* INPUT : in_14 
* INPUT : in_15 
* INPUT : in_16 
* INPUT : in_17 
* INPUT : in_18 
* INPUT : in_19 
* INPUT : in_20 
* INPUT : in_21 
* INPUT : in_22 
* INPUT : in_23 
* INPUT : in_24 
* INPUT : in_25 
* INPUT : in_26 
* INPUT : in_27 
* INPUT : in_28 
* INPUT : in_29 
* INPUT : in_30 
* INPUT : in_31 
* INPUT : in_32 
* OUTPUT: wl_0 
* OUTPUT: wl_1 
* OUTPUT: wl_2 
* OUTPUT: wl_3 
* OUTPUT: wl_4 
* OUTPUT: wl_5 
* OUTPUT: wl_6 
* OUTPUT: wl_7 
* OUTPUT: wl_8 
* OUTPUT: wl_9 
* OUTPUT: wl_10 
* OUTPUT: wl_11 
* OUTPUT: wl_12 
* OUTPUT: wl_13 
* OUTPUT: wl_14 
* OUTPUT: wl_15 
* OUTPUT: wl_16 
* OUTPUT: wl_17 
* OUTPUT: wl_18 
* OUTPUT: wl_19 
* OUTPUT: wl_20 
* OUTPUT: wl_21 
* OUTPUT: wl_22 
* OUTPUT: wl_23 
* OUTPUT: wl_24 
* OUTPUT: wl_25 
* OUTPUT: wl_26 
* OUTPUT: wl_27 
* OUTPUT: wl_28 
* OUTPUT: wl_29 
* OUTPUT: wl_30 
* OUTPUT: wl_31 
* OUTPUT: wl_32 
* INPUT : en 
* POWER : vdd 
* GROUND: gnd 
* rows: 33 cols: 33
Xwl_driver_and0
+ in_0 en wl_0 vdd gnd
+ sky130_sram_128bytes_1r1w_32x32_wordline_driver
Xwl_driver_and1
+ in_1 en wl_1 vdd gnd
+ sky130_sram_128bytes_1r1w_32x32_wordline_driver
Xwl_driver_and2
+ in_2 en wl_2 vdd gnd
+ sky130_sram_128bytes_1r1w_32x32_wordline_driver
Xwl_driver_and3
+ in_3 en wl_3 vdd gnd
+ sky130_sram_128bytes_1r1w_32x32_wordline_driver
Xwl_driver_and4
+ in_4 en wl_4 vdd gnd
+ sky130_sram_128bytes_1r1w_32x32_wordline_driver
Xwl_driver_and5
+ in_5 en wl_5 vdd gnd
+ sky130_sram_128bytes_1r1w_32x32_wordline_driver
Xwl_driver_and6
+ in_6 en wl_6 vdd gnd
+ sky130_sram_128bytes_1r1w_32x32_wordline_driver
Xwl_driver_and7
+ in_7 en wl_7 vdd gnd
+ sky130_sram_128bytes_1r1w_32x32_wordline_driver
Xwl_driver_and8
+ in_8 en wl_8 vdd gnd
+ sky130_sram_128bytes_1r1w_32x32_wordline_driver
Xwl_driver_and9
+ in_9 en wl_9 vdd gnd
+ sky130_sram_128bytes_1r1w_32x32_wordline_driver
Xwl_driver_and10
+ in_10 en wl_10 vdd gnd
+ sky130_sram_128bytes_1r1w_32x32_wordline_driver
Xwl_driver_and11
+ in_11 en wl_11 vdd gnd
+ sky130_sram_128bytes_1r1w_32x32_wordline_driver
Xwl_driver_and12
+ in_12 en wl_12 vdd gnd
+ sky130_sram_128bytes_1r1w_32x32_wordline_driver
Xwl_driver_and13
+ in_13 en wl_13 vdd gnd
+ sky130_sram_128bytes_1r1w_32x32_wordline_driver
Xwl_driver_and14
+ in_14 en wl_14 vdd gnd
+ sky130_sram_128bytes_1r1w_32x32_wordline_driver
Xwl_driver_and15
+ in_15 en wl_15 vdd gnd
+ sky130_sram_128bytes_1r1w_32x32_wordline_driver
Xwl_driver_and16
+ in_16 en wl_16 vdd gnd
+ sky130_sram_128bytes_1r1w_32x32_wordline_driver
Xwl_driver_and17
+ in_17 en wl_17 vdd gnd
+ sky130_sram_128bytes_1r1w_32x32_wordline_driver
Xwl_driver_and18
+ in_18 en wl_18 vdd gnd
+ sky130_sram_128bytes_1r1w_32x32_wordline_driver
Xwl_driver_and19
+ in_19 en wl_19 vdd gnd
+ sky130_sram_128bytes_1r1w_32x32_wordline_driver
Xwl_driver_and20
+ in_20 en wl_20 vdd gnd
+ sky130_sram_128bytes_1r1w_32x32_wordline_driver
Xwl_driver_and21
+ in_21 en wl_21 vdd gnd
+ sky130_sram_128bytes_1r1w_32x32_wordline_driver
Xwl_driver_and22
+ in_22 en wl_22 vdd gnd
+ sky130_sram_128bytes_1r1w_32x32_wordline_driver
Xwl_driver_and23
+ in_23 en wl_23 vdd gnd
+ sky130_sram_128bytes_1r1w_32x32_wordline_driver
Xwl_driver_and24
+ in_24 en wl_24 vdd gnd
+ sky130_sram_128bytes_1r1w_32x32_wordline_driver
Xwl_driver_and25
+ in_25 en wl_25 vdd gnd
+ sky130_sram_128bytes_1r1w_32x32_wordline_driver
Xwl_driver_and26
+ in_26 en wl_26 vdd gnd
+ sky130_sram_128bytes_1r1w_32x32_wordline_driver
Xwl_driver_and27
+ in_27 en wl_27 vdd gnd
+ sky130_sram_128bytes_1r1w_32x32_wordline_driver
Xwl_driver_and28
+ in_28 en wl_28 vdd gnd
+ sky130_sram_128bytes_1r1w_32x32_wordline_driver
Xwl_driver_and29
+ in_29 en wl_29 vdd gnd
+ sky130_sram_128bytes_1r1w_32x32_wordline_driver
Xwl_driver_and30
+ in_30 en wl_30 vdd gnd
+ sky130_sram_128bytes_1r1w_32x32_wordline_driver
Xwl_driver_and31
+ in_31 en wl_31 vdd gnd
+ sky130_sram_128bytes_1r1w_32x32_wordline_driver
Xwl_driver_and32
+ in_32 en wl_32 vdd gnd
+ sky130_sram_128bytes_1r1w_32x32_wordline_driver
.ENDS sky130_sram_128bytes_1r1w_32x32_wordline_driver_array

* spice ptx X{0} {1} sky130_fd_pr__pfet_01v8 m=1 w=1.12 l=0.15 pd=2.54 ps=2.54 as=0.42u ad=0.42u

* spice ptx X{0} {1} sky130_fd_pr__nfet_01v8 m=1 w=0.36 l=0.15 pd=1.02 ps=1.02 as=0.14u ad=0.14u

.SUBCKT sky130_sram_128bytes_1r1w_32x32_pinv_dec
+ A Z vdd gnd
* INPUT : A 
* OUTPUT: Z 
* POWER : vdd 
* GROUND: gnd 
* size: 1
Xpinv_pmos Z A vdd vdd sky130_fd_pr__pfet_01v8 m=1 w=1.12 l=0.15 pd=2.54 ps=2.54 as=0.42u ad=0.42u
Xpinv_nmos Z A gnd gnd sky130_fd_pr__nfet_01v8 m=1 w=0.36 l=0.15 pd=1.02 ps=1.02 as=0.14u ad=0.14u
.ENDS sky130_sram_128bytes_1r1w_32x32_pinv_dec
* Copyright 2020 The SkyWater PDK Authors
*
* Licensed under the Apache License, Version 2.0 (the "License");
* you may not use this file except in compliance with the License.
* You may obtain a copy of the License at
*
*     https://www.apache.org/licenses/LICENSE-2.0
*
* Unless required by applicable law or agreed to in writing, software
* distributed under the License is distributed on an "AS IS" BASIS,
* WITHOUT WARRANTIES OR CONDITIONS OF ANY KIND, either express or implied.
* See the License for the specific language governing permissions and
* limitations under the License.
*
* SPDX-License-Identifier: Apache-2.0

* NGSPICE file created from sky130_fd_bd_sram__openram_dp_nand3_dec.ext - technology: EFS8A


* Top level circuit sky130_fd_bd_sram__openram_dp_nand3_dec
.subckt sky130_fd_bd_sram__openram_dp_nand3_dec A B C Z VDD GND

X1001 Z A a_n346_328# GND sky130_fd_pr__nfet_01v8 W=0.74 L=0.15
X1002 a_n346_256# C GND GND sky130_fd_pr__nfet_01v8 W=0.74 L=0.15
X1003 a_n346_328# B a_n346_256# GND sky130_fd_pr__nfet_01v8 W=0.74 L=0.15
X1000 Z B VDD VDD sky130_fd_pr__pfet_01v8 W=1.12 L=0.15
X1004 Z A VDD VDD sky130_fd_pr__pfet_01v8 W=1.12 L=0.15
X1005 Z C VDD VDD sky130_fd_pr__pfet_01v8 W=1.12 L=0.15
.ends


.SUBCKT sky130_sram_128bytes_1r1w_32x32_and3_dec
+ A B C Z vdd gnd
* INPUT : A 
* INPUT : B 
* INPUT : C 
* OUTPUT: Z 
* POWER : vdd 
* GROUND: gnd 
* size: 1
Xpand3_dec_nand
+ A B C zb_int vdd gnd
+ sky130_fd_bd_sram__openram_dp_nand3_dec
Xpand3_dec_inv
+ zb_int Z vdd gnd
+ sky130_sram_128bytes_1r1w_32x32_pinv_dec
.ENDS sky130_sram_128bytes_1r1w_32x32_and3_dec

.SUBCKT sky130_sram_128bytes_1r1w_32x32_and2_dec
+ A B Z vdd gnd
* INPUT : A 
* INPUT : B 
* OUTPUT: Z 
* POWER : vdd 
* GROUND: gnd 
* size: 1
Xpand2_dec_nand
+ A B zb_int vdd gnd
+ sky130_fd_bd_sram__openram_dp_nand2_dec
Xpand2_dec_inv
+ zb_int Z vdd gnd
+ sky130_sram_128bytes_1r1w_32x32_pinv_dec
.ENDS sky130_sram_128bytes_1r1w_32x32_and2_dec

.SUBCKT sky130_sram_128bytes_1r1w_32x32_hierarchical_predecode2x4
+ in_0 in_1 out_0 out_1 out_2 out_3 vdd gnd
* INPUT : in_0 
* INPUT : in_1 
* OUTPUT: out_0 
* OUTPUT: out_1 
* OUTPUT: out_2 
* OUTPUT: out_3 
* POWER : vdd 
* GROUND: gnd 
Xpre_inv_0
+ in_0 inbar_0 vdd gnd
+ sky130_sram_128bytes_1r1w_32x32_pinv_dec
Xpre_inv_1
+ in_1 inbar_1 vdd gnd
+ sky130_sram_128bytes_1r1w_32x32_pinv_dec
XXpre2x4_and_0
+ inbar_0 inbar_1 out_0 vdd gnd
+ sky130_sram_128bytes_1r1w_32x32_and2_dec
XXpre2x4_and_1
+ in_0 inbar_1 out_1 vdd gnd
+ sky130_sram_128bytes_1r1w_32x32_and2_dec
XXpre2x4_and_2
+ inbar_0 in_1 out_2 vdd gnd
+ sky130_sram_128bytes_1r1w_32x32_and2_dec
XXpre2x4_and_3
+ in_0 in_1 out_3 vdd gnd
+ sky130_sram_128bytes_1r1w_32x32_and2_dec
.ENDS sky130_sram_128bytes_1r1w_32x32_hierarchical_predecode2x4

.SUBCKT sky130_sram_128bytes_1r1w_32x32_hierarchical_decoder
+ addr_0 addr_1 addr_2 addr_3 addr_4 addr_5 decode_0 decode_1 decode_2
+ decode_3 decode_4 decode_5 decode_6 decode_7 decode_8 decode_9
+ decode_10 decode_11 decode_12 decode_13 decode_14 decode_15 decode_16
+ decode_17 decode_18 decode_19 decode_20 decode_21 decode_22 decode_23
+ decode_24 decode_25 decode_26 decode_27 decode_28 decode_29 decode_30
+ decode_31 decode_32 vdd gnd
* INPUT : addr_0 
* INPUT : addr_1 
* INPUT : addr_2 
* INPUT : addr_3 
* INPUT : addr_4 
* INPUT : addr_5 
* OUTPUT: decode_0 
* OUTPUT: decode_1 
* OUTPUT: decode_2 
* OUTPUT: decode_3 
* OUTPUT: decode_4 
* OUTPUT: decode_5 
* OUTPUT: decode_6 
* OUTPUT: decode_7 
* OUTPUT: decode_8 
* OUTPUT: decode_9 
* OUTPUT: decode_10 
* OUTPUT: decode_11 
* OUTPUT: decode_12 
* OUTPUT: decode_13 
* OUTPUT: decode_14 
* OUTPUT: decode_15 
* OUTPUT: decode_16 
* OUTPUT: decode_17 
* OUTPUT: decode_18 
* OUTPUT: decode_19 
* OUTPUT: decode_20 
* OUTPUT: decode_21 
* OUTPUT: decode_22 
* OUTPUT: decode_23 
* OUTPUT: decode_24 
* OUTPUT: decode_25 
* OUTPUT: decode_26 
* OUTPUT: decode_27 
* OUTPUT: decode_28 
* OUTPUT: decode_29 
* OUTPUT: decode_30 
* OUTPUT: decode_31 
* OUTPUT: decode_32 
* POWER : vdd 
* GROUND: gnd 
Xpre_0
+ addr_0 addr_1 out_0 out_1 out_2 out_3 vdd gnd
+ sky130_sram_128bytes_1r1w_32x32_hierarchical_predecode2x4
Xpre_1
+ addr_2 addr_3 out_4 out_5 out_6 out_7 vdd gnd
+ sky130_sram_128bytes_1r1w_32x32_hierarchical_predecode2x4
Xpre_2
+ addr_4 addr_5 out_8 out_9 out_10 out_11 vdd gnd
+ sky130_sram_128bytes_1r1w_32x32_hierarchical_predecode2x4
XDEC_AND_0
+ out_0 out_4 out_8 decode_0 vdd gnd
+ sky130_sram_128bytes_1r1w_32x32_and3_dec
XDEC_AND_16
+ out_0 out_4 out_9 decode_16 vdd gnd
+ sky130_sram_128bytes_1r1w_32x32_and3_dec
XDEC_AND_32
+ out_0 out_4 out_10 decode_32 vdd gnd
+ sky130_sram_128bytes_1r1w_32x32_and3_dec
XDEC_AND_4
+ out_0 out_5 out_8 decode_4 vdd gnd
+ sky130_sram_128bytes_1r1w_32x32_and3_dec
XDEC_AND_20
+ out_0 out_5 out_9 decode_20 vdd gnd
+ sky130_sram_128bytes_1r1w_32x32_and3_dec
XDEC_AND_8
+ out_0 out_6 out_8 decode_8 vdd gnd
+ sky130_sram_128bytes_1r1w_32x32_and3_dec
XDEC_AND_24
+ out_0 out_6 out_9 decode_24 vdd gnd
+ sky130_sram_128bytes_1r1w_32x32_and3_dec
XDEC_AND_12
+ out_0 out_7 out_8 decode_12 vdd gnd
+ sky130_sram_128bytes_1r1w_32x32_and3_dec
XDEC_AND_28
+ out_0 out_7 out_9 decode_28 vdd gnd
+ sky130_sram_128bytes_1r1w_32x32_and3_dec
XDEC_AND_1
+ out_1 out_4 out_8 decode_1 vdd gnd
+ sky130_sram_128bytes_1r1w_32x32_and3_dec
XDEC_AND_17
+ out_1 out_4 out_9 decode_17 vdd gnd
+ sky130_sram_128bytes_1r1w_32x32_and3_dec
XDEC_AND_5
+ out_1 out_5 out_8 decode_5 vdd gnd
+ sky130_sram_128bytes_1r1w_32x32_and3_dec
XDEC_AND_21
+ out_1 out_5 out_9 decode_21 vdd gnd
+ sky130_sram_128bytes_1r1w_32x32_and3_dec
XDEC_AND_9
+ out_1 out_6 out_8 decode_9 vdd gnd
+ sky130_sram_128bytes_1r1w_32x32_and3_dec
XDEC_AND_25
+ out_1 out_6 out_9 decode_25 vdd gnd
+ sky130_sram_128bytes_1r1w_32x32_and3_dec
XDEC_AND_13
+ out_1 out_7 out_8 decode_13 vdd gnd
+ sky130_sram_128bytes_1r1w_32x32_and3_dec
XDEC_AND_29
+ out_1 out_7 out_9 decode_29 vdd gnd
+ sky130_sram_128bytes_1r1w_32x32_and3_dec
XDEC_AND_2
+ out_2 out_4 out_8 decode_2 vdd gnd
+ sky130_sram_128bytes_1r1w_32x32_and3_dec
XDEC_AND_18
+ out_2 out_4 out_9 decode_18 vdd gnd
+ sky130_sram_128bytes_1r1w_32x32_and3_dec
XDEC_AND_6
+ out_2 out_5 out_8 decode_6 vdd gnd
+ sky130_sram_128bytes_1r1w_32x32_and3_dec
XDEC_AND_22
+ out_2 out_5 out_9 decode_22 vdd gnd
+ sky130_sram_128bytes_1r1w_32x32_and3_dec
XDEC_AND_10
+ out_2 out_6 out_8 decode_10 vdd gnd
+ sky130_sram_128bytes_1r1w_32x32_and3_dec
XDEC_AND_26
+ out_2 out_6 out_9 decode_26 vdd gnd
+ sky130_sram_128bytes_1r1w_32x32_and3_dec
XDEC_AND_14
+ out_2 out_7 out_8 decode_14 vdd gnd
+ sky130_sram_128bytes_1r1w_32x32_and3_dec
XDEC_AND_30
+ out_2 out_7 out_9 decode_30 vdd gnd
+ sky130_sram_128bytes_1r1w_32x32_and3_dec
XDEC_AND_3
+ out_3 out_4 out_8 decode_3 vdd gnd
+ sky130_sram_128bytes_1r1w_32x32_and3_dec
XDEC_AND_19
+ out_3 out_4 out_9 decode_19 vdd gnd
+ sky130_sram_128bytes_1r1w_32x32_and3_dec
XDEC_AND_7
+ out_3 out_5 out_8 decode_7 vdd gnd
+ sky130_sram_128bytes_1r1w_32x32_and3_dec
XDEC_AND_23
+ out_3 out_5 out_9 decode_23 vdd gnd
+ sky130_sram_128bytes_1r1w_32x32_and3_dec
XDEC_AND_11
+ out_3 out_6 out_8 decode_11 vdd gnd
+ sky130_sram_128bytes_1r1w_32x32_and3_dec
XDEC_AND_27
+ out_3 out_6 out_9 decode_27 vdd gnd
+ sky130_sram_128bytes_1r1w_32x32_and3_dec
XDEC_AND_15
+ out_3 out_7 out_8 decode_15 vdd gnd
+ sky130_sram_128bytes_1r1w_32x32_and3_dec
XDEC_AND_31
+ out_3 out_7 out_9 decode_31 vdd gnd
+ sky130_sram_128bytes_1r1w_32x32_and3_dec
.ENDS sky130_sram_128bytes_1r1w_32x32_hierarchical_decoder

.SUBCKT sky130_sram_128bytes_1r1w_32x32_and2_dec_0
+ A B Z vdd gnd
* INPUT : A 
* INPUT : B 
* OUTPUT: Z 
* POWER : vdd 
* GROUND: gnd 
* size: 8
Xpand2_dec_nand
+ A B zb_int vdd gnd
+ sky130_fd_bd_sram__openram_dp_nand2_dec
Xpand2_dec_inv
+ zb_int Z vdd gnd
+ sky130_sram_128bytes_1r1w_32x32_pinv_dec_0
.ENDS sky130_sram_128bytes_1r1w_32x32_and2_dec_0

.SUBCKT sky130_sram_128bytes_1r1w_32x32_port_address_0
+ addr_0 addr_1 addr_2 addr_3 addr_4 addr_5 wl_en wl_0 wl_1 wl_2 wl_3
+ wl_4 wl_5 wl_6 wl_7 wl_8 wl_9 wl_10 wl_11 wl_12 wl_13 wl_14 wl_15
+ wl_16 wl_17 wl_18 wl_19 wl_20 wl_21 wl_22 wl_23 wl_24 wl_25 wl_26
+ wl_27 wl_28 wl_29 wl_30 wl_31 wl_32 rbl_wl vdd gnd
* INPUT : addr_0 
* INPUT : addr_1 
* INPUT : addr_2 
* INPUT : addr_3 
* INPUT : addr_4 
* INPUT : addr_5 
* INPUT : wl_en 
* OUTPUT: wl_0 
* OUTPUT: wl_1 
* OUTPUT: wl_2 
* OUTPUT: wl_3 
* OUTPUT: wl_4 
* OUTPUT: wl_5 
* OUTPUT: wl_6 
* OUTPUT: wl_7 
* OUTPUT: wl_8 
* OUTPUT: wl_9 
* OUTPUT: wl_10 
* OUTPUT: wl_11 
* OUTPUT: wl_12 
* OUTPUT: wl_13 
* OUTPUT: wl_14 
* OUTPUT: wl_15 
* OUTPUT: wl_16 
* OUTPUT: wl_17 
* OUTPUT: wl_18 
* OUTPUT: wl_19 
* OUTPUT: wl_20 
* OUTPUT: wl_21 
* OUTPUT: wl_22 
* OUTPUT: wl_23 
* OUTPUT: wl_24 
* OUTPUT: wl_25 
* OUTPUT: wl_26 
* OUTPUT: wl_27 
* OUTPUT: wl_28 
* OUTPUT: wl_29 
* OUTPUT: wl_30 
* OUTPUT: wl_31 
* OUTPUT: wl_32 
* OUTPUT: rbl_wl 
* POWER : vdd 
* GROUND: gnd 
Xrow_decoder
+ addr_0 addr_1 addr_2 addr_3 addr_4 addr_5 dec_out_0 dec_out_1
+ dec_out_2 dec_out_3 dec_out_4 dec_out_5 dec_out_6 dec_out_7 dec_out_8
+ dec_out_9 dec_out_10 dec_out_11 dec_out_12 dec_out_13 dec_out_14
+ dec_out_15 dec_out_16 dec_out_17 dec_out_18 dec_out_19 dec_out_20
+ dec_out_21 dec_out_22 dec_out_23 dec_out_24 dec_out_25 dec_out_26
+ dec_out_27 dec_out_28 dec_out_29 dec_out_30 dec_out_31 dec_out_32 vdd
+ gnd
+ sky130_sram_128bytes_1r1w_32x32_hierarchical_decoder
Xwordline_driver
+ dec_out_0 dec_out_1 dec_out_2 dec_out_3 dec_out_4 dec_out_5 dec_out_6
+ dec_out_7 dec_out_8 dec_out_9 dec_out_10 dec_out_11 dec_out_12
+ dec_out_13 dec_out_14 dec_out_15 dec_out_16 dec_out_17 dec_out_18
+ dec_out_19 dec_out_20 dec_out_21 dec_out_22 dec_out_23 dec_out_24
+ dec_out_25 dec_out_26 dec_out_27 dec_out_28 dec_out_29 dec_out_30
+ dec_out_31 dec_out_32 wl_0 wl_1 wl_2 wl_3 wl_4 wl_5 wl_6 wl_7 wl_8
+ wl_9 wl_10 wl_11 wl_12 wl_13 wl_14 wl_15 wl_16 wl_17 wl_18 wl_19 wl_20
+ wl_21 wl_22 wl_23 wl_24 wl_25 wl_26 wl_27 wl_28 wl_29 wl_30 wl_31
+ wl_32 wl_en vdd gnd
+ sky130_sram_128bytes_1r1w_32x32_wordline_driver_array
Xrbl_driver
+ wl_en vdd rbl_wl vdd gnd
+ sky130_sram_128bytes_1r1w_32x32_and2_dec_0
.ENDS sky130_sram_128bytes_1r1w_32x32_port_address_0
* Copyright 2020 The SkyWater PDK Authors
*
* Licensed under the Apache License, Version 2.0 (the "License");
* you may not use this file except in compliance with the License.
* You may obtain a copy of the License at
*
*     https://www.apache.org/licenses/LICENSE-2.0
*
* Unless required by applicable law or agreed to in writing, software
* distributed under the License is distributed on an "AS IS" BASIS,
* WITHOUT WARRANTIES OR CONDITIONS OF ANY KIND, either express or implied.
* See the License for the specific language governing permissions and
* limitations under the License.
*
* SPDX-License-Identifier: Apache-2.0


.SUBCKT sky130_fd_bd_sram__openram_dp_cell_dummy BL0 BR0 BL1 BR1 WL0 WL1 VDD GND
** N=14 EP=6 IP=0 FDC=16
*.SEEDPROM

* Bitcell Core
X1 1 GND GND GND sky130_fd_pr__special_nfet_latch W=0.21 L=0.15
X2 1 WL1 BL1 GND sky130_fd_pr__special_nfet_latch W=0.21 L=0.15
X3 2 GND GND GND sky130_fd_pr__special_nfet_latch W=0.21 L=0.15
X4 2 WL1 BR1 GND sky130_fd_pr__special_nfet_latch W=0.21 L=0.15
X5 3 GND GND GND sky130_fd_pr__special_nfet_latch W=0.21 L=0.15
X6 3 WL0 BL0 GND sky130_fd_pr__special_nfet_latch W=0.21 L=0.15
X7 4 GND GND GND sky130_fd_pr__special_nfet_latch W=0.21 L=0.15
X8 4 WL0 BR0 GND sky130_fd_pr__special_nfet_latch W=0.21 L=0.15

* drainOnly NMOS
X9 BL1 GND BL1 GND sky130_fd_pr__special_nfet_latch W=0.21 L=0.08
X10 BR1 GND BR1 GND sky130_fd_pr__special_nfet_latch W=0.21 L=0.08

.ENDS

.SUBCKT sky130_sram_128bytes_1r1w_32x32_dummy_array
+ bl_0_0 bl_1_0 br_0_0 br_1_0 bl_0_1 bl_1_1 br_0_1 br_1_1 bl_0_2 bl_1_2
+ br_0_2 br_1_2 bl_0_3 bl_1_3 br_0_3 br_1_3 bl_0_4 bl_1_4 br_0_4 br_1_4
+ bl_0_5 bl_1_5 br_0_5 br_1_5 bl_0_6 bl_1_6 br_0_6 br_1_6 bl_0_7 bl_1_7
+ br_0_7 br_1_7 bl_0_8 bl_1_8 br_0_8 br_1_8 bl_0_9 bl_1_9 br_0_9 br_1_9
+ bl_0_10 bl_1_10 br_0_10 br_1_10 bl_0_11 bl_1_11 br_0_11 br_1_11
+ bl_0_12 bl_1_12 br_0_12 br_1_12 bl_0_13 bl_1_13 br_0_13 br_1_13
+ bl_0_14 bl_1_14 br_0_14 br_1_14 bl_0_15 bl_1_15 br_0_15 br_1_15
+ bl_0_16 bl_1_16 br_0_16 br_1_16 bl_0_17 bl_1_17 br_0_17 br_1_17
+ bl_0_18 bl_1_18 br_0_18 br_1_18 bl_0_19 bl_1_19 br_0_19 br_1_19
+ bl_0_20 bl_1_20 br_0_20 br_1_20 bl_0_21 bl_1_21 br_0_21 br_1_21
+ bl_0_22 bl_1_22 br_0_22 br_1_22 bl_0_23 bl_1_23 br_0_23 br_1_23
+ bl_0_24 bl_1_24 br_0_24 br_1_24 bl_0_25 bl_1_25 br_0_25 br_1_25
+ bl_0_26 bl_1_26 br_0_26 br_1_26 bl_0_27 bl_1_27 br_0_27 br_1_27
+ bl_0_28 bl_1_28 br_0_28 br_1_28 bl_0_29 bl_1_29 br_0_29 br_1_29
+ bl_0_30 bl_1_30 br_0_30 br_1_30 bl_0_31 bl_1_31 br_0_31 br_1_31
+ bl_0_32 bl_1_32 br_0_32 br_1_32 wl_0_0 wl_1_0 vdd gnd
* INOUT : bl_0_0 
* INOUT : bl_1_0 
* INOUT : br_0_0 
* INOUT : br_1_0 
* INOUT : bl_0_1 
* INOUT : bl_1_1 
* INOUT : br_0_1 
* INOUT : br_1_1 
* INOUT : bl_0_2 
* INOUT : bl_1_2 
* INOUT : br_0_2 
* INOUT : br_1_2 
* INOUT : bl_0_3 
* INOUT : bl_1_3 
* INOUT : br_0_3 
* INOUT : br_1_3 
* INOUT : bl_0_4 
* INOUT : bl_1_4 
* INOUT : br_0_4 
* INOUT : br_1_4 
* INOUT : bl_0_5 
* INOUT : bl_1_5 
* INOUT : br_0_5 
* INOUT : br_1_5 
* INOUT : bl_0_6 
* INOUT : bl_1_6 
* INOUT : br_0_6 
* INOUT : br_1_6 
* INOUT : bl_0_7 
* INOUT : bl_1_7 
* INOUT : br_0_7 
* INOUT : br_1_7 
* INOUT : bl_0_8 
* INOUT : bl_1_8 
* INOUT : br_0_8 
* INOUT : br_1_8 
* INOUT : bl_0_9 
* INOUT : bl_1_9 
* INOUT : br_0_9 
* INOUT : br_1_9 
* INOUT : bl_0_10 
* INOUT : bl_1_10 
* INOUT : br_0_10 
* INOUT : br_1_10 
* INOUT : bl_0_11 
* INOUT : bl_1_11 
* INOUT : br_0_11 
* INOUT : br_1_11 
* INOUT : bl_0_12 
* INOUT : bl_1_12 
* INOUT : br_0_12 
* INOUT : br_1_12 
* INOUT : bl_0_13 
* INOUT : bl_1_13 
* INOUT : br_0_13 
* INOUT : br_1_13 
* INOUT : bl_0_14 
* INOUT : bl_1_14 
* INOUT : br_0_14 
* INOUT : br_1_14 
* INOUT : bl_0_15 
* INOUT : bl_1_15 
* INOUT : br_0_15 
* INOUT : br_1_15 
* INOUT : bl_0_16 
* INOUT : bl_1_16 
* INOUT : br_0_16 
* INOUT : br_1_16 
* INOUT : bl_0_17 
* INOUT : bl_1_17 
* INOUT : br_0_17 
* INOUT : br_1_17 
* INOUT : bl_0_18 
* INOUT : bl_1_18 
* INOUT : br_0_18 
* INOUT : br_1_18 
* INOUT : bl_0_19 
* INOUT : bl_1_19 
* INOUT : br_0_19 
* INOUT : br_1_19 
* INOUT : bl_0_20 
* INOUT : bl_1_20 
* INOUT : br_0_20 
* INOUT : br_1_20 
* INOUT : bl_0_21 
* INOUT : bl_1_21 
* INOUT : br_0_21 
* INOUT : br_1_21 
* INOUT : bl_0_22 
* INOUT : bl_1_22 
* INOUT : br_0_22 
* INOUT : br_1_22 
* INOUT : bl_0_23 
* INOUT : bl_1_23 
* INOUT : br_0_23 
* INOUT : br_1_23 
* INOUT : bl_0_24 
* INOUT : bl_1_24 
* INOUT : br_0_24 
* INOUT : br_1_24 
* INOUT : bl_0_25 
* INOUT : bl_1_25 
* INOUT : br_0_25 
* INOUT : br_1_25 
* INOUT : bl_0_26 
* INOUT : bl_1_26 
* INOUT : br_0_26 
* INOUT : br_1_26 
* INOUT : bl_0_27 
* INOUT : bl_1_27 
* INOUT : br_0_27 
* INOUT : br_1_27 
* INOUT : bl_0_28 
* INOUT : bl_1_28 
* INOUT : br_0_28 
* INOUT : br_1_28 
* INOUT : bl_0_29 
* INOUT : bl_1_29 
* INOUT : br_0_29 
* INOUT : br_1_29 
* INOUT : bl_0_30 
* INOUT : bl_1_30 
* INOUT : br_0_30 
* INOUT : br_1_30 
* INOUT : bl_0_31 
* INOUT : bl_1_31 
* INOUT : br_0_31 
* INOUT : br_1_31 
* INOUT : bl_0_32 
* INOUT : bl_1_32 
* INOUT : br_0_32 
* INOUT : br_1_32 
* INPUT : wl_0_0 
* INPUT : wl_1_0 
* POWER : vdd 
* GROUND: gnd 
Xbit_r0_c0
+ bl_0_0 br_0_0 bl_1_0 br_1_0 wl_0_0 wl_1_0 vdd gnd
+ sky130_fd_bd_sram__openram_dp_cell_dummy
Xbit_r0_c1
+ bl_0_1 br_0_1 bl_1_1 br_1_1 wl_0_0 wl_1_0 vdd gnd
+ sky130_fd_bd_sram__openram_dp_cell_dummy
Xbit_r0_c2
+ bl_0_2 br_0_2 bl_1_2 br_1_2 wl_0_0 wl_1_0 vdd gnd
+ sky130_fd_bd_sram__openram_dp_cell_dummy
Xbit_r0_c3
+ bl_0_3 br_0_3 bl_1_3 br_1_3 wl_0_0 wl_1_0 vdd gnd
+ sky130_fd_bd_sram__openram_dp_cell_dummy
Xbit_r0_c4
+ bl_0_4 br_0_4 bl_1_4 br_1_4 wl_0_0 wl_1_0 vdd gnd
+ sky130_fd_bd_sram__openram_dp_cell_dummy
Xbit_r0_c5
+ bl_0_5 br_0_5 bl_1_5 br_1_5 wl_0_0 wl_1_0 vdd gnd
+ sky130_fd_bd_sram__openram_dp_cell_dummy
Xbit_r0_c6
+ bl_0_6 br_0_6 bl_1_6 br_1_6 wl_0_0 wl_1_0 vdd gnd
+ sky130_fd_bd_sram__openram_dp_cell_dummy
Xbit_r0_c7
+ bl_0_7 br_0_7 bl_1_7 br_1_7 wl_0_0 wl_1_0 vdd gnd
+ sky130_fd_bd_sram__openram_dp_cell_dummy
Xbit_r0_c8
+ bl_0_8 br_0_8 bl_1_8 br_1_8 wl_0_0 wl_1_0 vdd gnd
+ sky130_fd_bd_sram__openram_dp_cell_dummy
Xbit_r0_c9
+ bl_0_9 br_0_9 bl_1_9 br_1_9 wl_0_0 wl_1_0 vdd gnd
+ sky130_fd_bd_sram__openram_dp_cell_dummy
Xbit_r0_c10
+ bl_0_10 br_0_10 bl_1_10 br_1_10 wl_0_0 wl_1_0 vdd gnd
+ sky130_fd_bd_sram__openram_dp_cell_dummy
Xbit_r0_c11
+ bl_0_11 br_0_11 bl_1_11 br_1_11 wl_0_0 wl_1_0 vdd gnd
+ sky130_fd_bd_sram__openram_dp_cell_dummy
Xbit_r0_c12
+ bl_0_12 br_0_12 bl_1_12 br_1_12 wl_0_0 wl_1_0 vdd gnd
+ sky130_fd_bd_sram__openram_dp_cell_dummy
Xbit_r0_c13
+ bl_0_13 br_0_13 bl_1_13 br_1_13 wl_0_0 wl_1_0 vdd gnd
+ sky130_fd_bd_sram__openram_dp_cell_dummy
Xbit_r0_c14
+ bl_0_14 br_0_14 bl_1_14 br_1_14 wl_0_0 wl_1_0 vdd gnd
+ sky130_fd_bd_sram__openram_dp_cell_dummy
Xbit_r0_c15
+ bl_0_15 br_0_15 bl_1_15 br_1_15 wl_0_0 wl_1_0 vdd gnd
+ sky130_fd_bd_sram__openram_dp_cell_dummy
Xbit_r0_c16
+ bl_0_16 br_0_16 bl_1_16 br_1_16 wl_0_0 wl_1_0 vdd gnd
+ sky130_fd_bd_sram__openram_dp_cell_dummy
Xbit_r0_c17
+ bl_0_17 br_0_17 bl_1_17 br_1_17 wl_0_0 wl_1_0 vdd gnd
+ sky130_fd_bd_sram__openram_dp_cell_dummy
Xbit_r0_c18
+ bl_0_18 br_0_18 bl_1_18 br_1_18 wl_0_0 wl_1_0 vdd gnd
+ sky130_fd_bd_sram__openram_dp_cell_dummy
Xbit_r0_c19
+ bl_0_19 br_0_19 bl_1_19 br_1_19 wl_0_0 wl_1_0 vdd gnd
+ sky130_fd_bd_sram__openram_dp_cell_dummy
Xbit_r0_c20
+ bl_0_20 br_0_20 bl_1_20 br_1_20 wl_0_0 wl_1_0 vdd gnd
+ sky130_fd_bd_sram__openram_dp_cell_dummy
Xbit_r0_c21
+ bl_0_21 br_0_21 bl_1_21 br_1_21 wl_0_0 wl_1_0 vdd gnd
+ sky130_fd_bd_sram__openram_dp_cell_dummy
Xbit_r0_c22
+ bl_0_22 br_0_22 bl_1_22 br_1_22 wl_0_0 wl_1_0 vdd gnd
+ sky130_fd_bd_sram__openram_dp_cell_dummy
Xbit_r0_c23
+ bl_0_23 br_0_23 bl_1_23 br_1_23 wl_0_0 wl_1_0 vdd gnd
+ sky130_fd_bd_sram__openram_dp_cell_dummy
Xbit_r0_c24
+ bl_0_24 br_0_24 bl_1_24 br_1_24 wl_0_0 wl_1_0 vdd gnd
+ sky130_fd_bd_sram__openram_dp_cell_dummy
Xbit_r0_c25
+ bl_0_25 br_0_25 bl_1_25 br_1_25 wl_0_0 wl_1_0 vdd gnd
+ sky130_fd_bd_sram__openram_dp_cell_dummy
Xbit_r0_c26
+ bl_0_26 br_0_26 bl_1_26 br_1_26 wl_0_0 wl_1_0 vdd gnd
+ sky130_fd_bd_sram__openram_dp_cell_dummy
Xbit_r0_c27
+ bl_0_27 br_0_27 bl_1_27 br_1_27 wl_0_0 wl_1_0 vdd gnd
+ sky130_fd_bd_sram__openram_dp_cell_dummy
Xbit_r0_c28
+ bl_0_28 br_0_28 bl_1_28 br_1_28 wl_0_0 wl_1_0 vdd gnd
+ sky130_fd_bd_sram__openram_dp_cell_dummy
Xbit_r0_c29
+ bl_0_29 br_0_29 bl_1_29 br_1_29 wl_0_0 wl_1_0 vdd gnd
+ sky130_fd_bd_sram__openram_dp_cell_dummy
Xbit_r0_c30
+ bl_0_30 br_0_30 bl_1_30 br_1_30 wl_0_0 wl_1_0 vdd gnd
+ sky130_fd_bd_sram__openram_dp_cell_dummy
Xbit_r0_c31
+ bl_0_31 br_0_31 bl_1_31 br_1_31 wl_0_0 wl_1_0 vdd gnd
+ sky130_fd_bd_sram__openram_dp_cell_dummy
Xbit_r0_c32
+ bl_0_32 br_0_32 bl_1_32 br_1_32 wl_0_0 wl_1_0 vdd gnd
+ sky130_fd_bd_sram__openram_dp_cell_dummy
.ENDS sky130_sram_128bytes_1r1w_32x32_dummy_array
* Copyright 2020 The SkyWater PDK Authors
*
* Licensed under the Apache License, Version 2.0 (the "License");
* you may not use this file except in compliance with the License.
* You may obtain a copy of the License at
*
*     https://www.apache.org/licenses/LICENSE-2.0
*
* Unless required by applicable law or agreed to in writing, software
* distributed under the License is distributed on an "AS IS" BASIS,
* WITHOUT WARRANTIES OR CONDITIONS OF ANY KIND, either express or implied.
* See the License for the specific language governing permissions and
* limitations under the License.
*
* SPDX-License-Identifier: Apache-2.0


.SUBCKT sky130_fd_bd_sram__openram_dp_cell_replica BL0 BR0 BL1 BR1 WL0 WL1 VDD GND
** N=9 EP=8 IP=0 FDC=16
*.SEEDPROM

* Bitcell Core
X0 Q WL1 BL1 GND sky130_fd_pr__special_nfet_latch W=0.21 L=0.15
X1 GND VDD Q GND sky130_fd_pr__special_nfet_latch W=0.21 L=0.15
X2 GND VDD Q GND sky130_fd_pr__special_nfet_latch W=0.21 L=0.15
X3 BL0 WL0 Q GND sky130_fd_pr__special_nfet_latch W=0.21 L=0.15
X4 VDD WL1 BR1 GND sky130_fd_pr__special_nfet_latch W=0.21 L=0.15
X5 GND Q VDD GND sky130_fd_pr__special_nfet_latch W=0.21 L=0.15
X6 GND Q VDD GND sky130_fd_pr__special_nfet_latch W=0.21 L=0.15
X7 BR0 WL0 VDD GND sky130_fd_pr__special_nfet_latch W=0.21 L=0.15
X8 VDD Q VDD VDD sky130_fd_pr__special_pfet_pass W=0.14 L=0.15
X9 Q VDD VDD VDD sky130_fd_pr__special_pfet_pass W=0.14 L=0.15

* drainOnly PMOS
*X10 VDD WL1 VDD VDD sky130_fd_pr__special_pfet_pass L=0.08 W=0.14
*X11 Q WL0 Q VDD sky130_fd_pr__special_pfet_pass L=0.08 W=0.14

* drainOnly NMOS
X12 BL1 GND BL1 GND sky130_fd_pr__special_nfet_latch W=0.21 L=0.08
X14 BR1 GND BR1 GND sky130_fd_pr__special_nfet_latch W=0.21 L=0.08

.ENDS

.SUBCKT sky130_sram_128bytes_1r1w_32x32_replica_column_0
+ bl_0_0 bl_1_0 br_0_0 br_1_0 wl_0_0 wl_1_0 wl_0_1 wl_1_1 wl_0_2 wl_1_2
+ wl_0_3 wl_1_3 wl_0_4 wl_1_4 wl_0_5 wl_1_5 wl_0_6 wl_1_6 wl_0_7 wl_1_7
+ wl_0_8 wl_1_8 wl_0_9 wl_1_9 wl_0_10 wl_1_10 wl_0_11 wl_1_11 wl_0_12
+ wl_1_12 wl_0_13 wl_1_13 wl_0_14 wl_1_14 wl_0_15 wl_1_15 wl_0_16
+ wl_1_16 wl_0_17 wl_1_17 wl_0_18 wl_1_18 wl_0_19 wl_1_19 wl_0_20
+ wl_1_20 wl_0_21 wl_1_21 wl_0_22 wl_1_22 wl_0_23 wl_1_23 wl_0_24
+ wl_1_24 wl_0_25 wl_1_25 wl_0_26 wl_1_26 wl_0_27 wl_1_27 wl_0_28
+ wl_1_28 wl_0_29 wl_1_29 wl_0_30 wl_1_30 wl_0_31 wl_1_31 wl_0_32
+ wl_1_32 wl_0_33 wl_1_33 wl_0_34 wl_1_34 vdd gnd
* OUTPUT: bl_0_0 
* OUTPUT: bl_1_0 
* OUTPUT: br_0_0 
* OUTPUT: br_1_0 
* INPUT : wl_0_0 
* INPUT : wl_1_0 
* INPUT : wl_0_1 
* INPUT : wl_1_1 
* INPUT : wl_0_2 
* INPUT : wl_1_2 
* INPUT : wl_0_3 
* INPUT : wl_1_3 
* INPUT : wl_0_4 
* INPUT : wl_1_4 
* INPUT : wl_0_5 
* INPUT : wl_1_5 
* INPUT : wl_0_6 
* INPUT : wl_1_6 
* INPUT : wl_0_7 
* INPUT : wl_1_7 
* INPUT : wl_0_8 
* INPUT : wl_1_8 
* INPUT : wl_0_9 
* INPUT : wl_1_9 
* INPUT : wl_0_10 
* INPUT : wl_1_10 
* INPUT : wl_0_11 
* INPUT : wl_1_11 
* INPUT : wl_0_12 
* INPUT : wl_1_12 
* INPUT : wl_0_13 
* INPUT : wl_1_13 
* INPUT : wl_0_14 
* INPUT : wl_1_14 
* INPUT : wl_0_15 
* INPUT : wl_1_15 
* INPUT : wl_0_16 
* INPUT : wl_1_16 
* INPUT : wl_0_17 
* INPUT : wl_1_17 
* INPUT : wl_0_18 
* INPUT : wl_1_18 
* INPUT : wl_0_19 
* INPUT : wl_1_19 
* INPUT : wl_0_20 
* INPUT : wl_1_20 
* INPUT : wl_0_21 
* INPUT : wl_1_21 
* INPUT : wl_0_22 
* INPUT : wl_1_22 
* INPUT : wl_0_23 
* INPUT : wl_1_23 
* INPUT : wl_0_24 
* INPUT : wl_1_24 
* INPUT : wl_0_25 
* INPUT : wl_1_25 
* INPUT : wl_0_26 
* INPUT : wl_1_26 
* INPUT : wl_0_27 
* INPUT : wl_1_27 
* INPUT : wl_0_28 
* INPUT : wl_1_28 
* INPUT : wl_0_29 
* INPUT : wl_1_29 
* INPUT : wl_0_30 
* INPUT : wl_1_30 